/*--------------------------------*- C++ -*----------------------------------*\
| =========                 |                                                 |
| \\      /  F ield         | OpenFOAM: The Open Source CFD Toolbox           |
|  \\    /   O peration     | Version:  3.0.0                                 |
|   \\  /    A nd           | Web:      www.OpenFOAM.org                      |
|    \\/     M anipulation  |                                                 |
\*---------------------------------------------------------------------------*/
FoamFile
{
    version     2.0;
    format      ascii;
    class       volVectorField;
    object      U;
}
// * * * * * * * * * * * * * * * * * * * * * * * * * * * * * * * * * * * * * //
// By sqrt(gamma*R*static_temp), speed of sound is approximately 179.3 m/s
// As per http://turbmodels.larc.nasa.gov/axiswblim7_val.html:
// Re = 57060 per cm and M = 7.11:
//  U = 1274.8 m/s and nu = 0.00022341395
freestream_velocity     (900 0 0); // (1274.8 0 0); // m/s
static_temperature      80; // Kelvin, aka freestream temp.
static_pressure         2296; // Pascals, assumed density = 0.1
wall_temperature        311; // K
// turbulence model
turbulentKE             100; // k
turbulentEpsilon        250000; // epsilon

// ************************************************************************* //
