/*--------------------------------*- C++ -*----------------------------------*\
| =========                 |                                                 |
| \\      /  F ield         | OpenFOAM: The Open Source CFD Toolbox           |
|  \\    /   O peration     | Version:  3.0.0                                 |
|   \\  /    A nd           | Web:      www.OpenFOAM.org                      |
|    \\/     M anipulation  |                                                 |
\*---------------------------------------------------------------------------*/
FoamFile
{
    version     2.0;
    format      ascii;
    class       volVectorField;
    object      U;
}
// * * * * * * * * * * * * * * * * * * * * * * * * * * * * * * * * * * * * * //

#include        "inputs"

dimensions      [0 1 -1 0 0 0 0];

internalField   uniform $freestream_velocity;

boundaryField
{
//     freestream
//     {
//         type            supersonicFreestream;
//         pInf            $static_pressure;
//         TInf            $static_temperature;
//         UInf            $freestream_velocity;
//         gamma           1.4;
//         value           $internalField;
//     }
    freestream
    {
        type            fixedValue;
        value           $internalField;
    }
    top
    {
        type            slip;
    }
    outlet
    {
        type            inletOutlet;
        inletValue      $internalField;
        value           $internalField;
    }
    missile
    {
        type            fixedValue;
        value           uniform (0 0 0);
    }
    wedge0
    {
        type            wedge;
    }
    wedge1
    {
        type            wedge;
    }
}

// ************************************************************************* //
