/*--------------------------------*- C++ -*----------------------------------*\
| =========                 |                                                 |
| \\      /  F ield         | OpenFOAM: The Open Source CFD Toolbox           |
|  \\    /   O peration     | Version:  3.0.x                                 |
|   \\  /    A nd           | Web:      www.OpenFOAM.org                      |
|    \\/     M anipulation  |                                                 |
\*---------------------------------------------------------------------------*/
FoamFile
{
    version     2.0;
    format      ascii;
    class       dictionary;
    object      changeDictionaryDict;
}
// * * * * * * * * * * * * * * * * * * * * * * * * * * * * * * * * * * * * * //

dictionaryReplacement
{
    boundary
    {
        missile
        {
            type wall;
        }
        top
        {
            type slip;
        }
        wedge0
        {
            type wedge;
        }
        wedge1
        {
            type wedge;
        }
    }
}
// ************************************************************************* //