/*--------------------------------*- C++ -*----------------------------------*\
| =========                 |                                                 |
| \\      /  F ield         | OpenFOAM: The Open Source CFD Toolbox           |
|  \\    /   O peration     | Version:  3.0.0                                 |
|   \\  /    A nd           | Web:      www.OpenFOAM.org                      |
|    \\/     M anipulation  |                                                 |
\*---------------------------------------------------------------------------*/
FoamFile
{
    version     2.0;
    format      ascii;
    class       dictionary;
    location    "system";
    object      fvSolution;
}
// * * * * * * * * * * * * * * * * * * * * * * * * * * * * * * * * * * * * * //

solvers
{
    "rho.*"
    {
        solver          diagonal;
    }

    "p.*"
    {   
        solver          smoothSolver;
        smoother        symGaussSeidel;
        // solver          PBiCG;
        // preconditioner  DILU;
        tolerance       1e-12;
        relTol          1e-6;
    }

    "(U|e).*"
    {
        $p;
        tolerance       1e-12;
        relTol          1e-6;
    }

    "(k|epsilon).*"
    {
        $p;
        tolerance       1e-10;
        relTol          1e-6;
    }
}

PIMPLE
{
    nOuterCorrectors 1;
    nCorrectors      1;
    nNonOrthogonalCorrectors 1;
}


// ************************************************************************* //
